/batch
/config,noeldb,1     ! force off writing results to database
*get,_wallstrt,active,,time,wall
! ANSYS input file written by Workbench version 19.1 RELEASE
! File used for geometry attach: F:\PhD\06_Paper\vvv_IEEE_Humanoid2018\StrainGauge\02_Ansys\01_Weight_Test\00.Weight Test_files\dp0\SYS\DM\SYS.scdoc
/title,00.Weight Test--Static Structural (A5)
*DIM,_wb_ProjectScratch_dir,string,248
_wb_ProjectScratch_dir(1) = 'F:\PhD\06_Paper\vvv_IEEE_Humanoid2018\StrainGauge\02_Ansys\01_Weight_Test\_ProjectScratch\Scr17B9\'
*DIM,_wb_SolverFiles_dir,string,248
_wb_SolverFiles_dir(1) = 'F:\PhD\06_Paper\vvv_IEEE_Humanoid2018\StrainGauge\02_Ansys\01_Weight_Test\00.Weight Test_files\dp0\SYS\MECH\'
*DIM,_wb_userfiles_dir,string,248
_wb_userfiles_dir(1) = 'F:\PhD\06_Paper\vvv_IEEE_Humanoid2018\StrainGauge\02_Ansys\01_Weight_Test\00.Weight Test_files\user_files\'
/com,--- Data in consistent MKS units. See Solving Units in the help system for more information.
/units,MKS
/nopr
/wb,file,start              !  signify a WB generated input file
/prep7
! Turn off shape checking because checks already performed inside WB mesher.
! See help system for more information.
SHPP,OFF,,NOWARN
/nolist
etcon,set             ! allow ANSYS to choose best KEYOP's for 180x elements
/com,*********** Nodes for the whole assembly ***********
nblock,3,,24512
(1i9,3e20.9e3)
        1    -7.120336542E-03     1.447684353E-01    -3.348574648E-02
        2    -7.157362929E-03     1.447804035E-01    -3.365751199E-02
        3    -1.026625758E-02     1.398020439E-01    -3.295704985E-02
        4    -1.050355391E-02     1.398431942E-01    -3.371882569E-02
        5     2.502782371E-03     1.587972451E-01    -3.382402413E-02
        6    -4.164580050E-03     1.494298322E-01    -3.446377959E-02
        7     2.444292054E-03     1.587207872E-01    -3.303355273E-02
        8    -2.637947095E-03     1.514721440E-01    -3.365496483E-02
        9    -1.938605367E-03     1.525067642E-01    -3.373405351E-02
       10    -2.130970871E-03     1.522538166E-01    -3.388928277E-02
       11    -2.470422251E-03     1.518149731E-01    -3.418028215E-02
       12    -4.014844536E-03     1.495336676E-01    -3.400536684E-02
       13    -6.985687054E-03     1.450415406E-01    -3.367640928E-02
       14    -3.193436635E-02     8.038691480E-02    -9.990709688E-03
       15    -3.148209021E-02     8.476621917E-02    -1.233727640E-02
       16    -3.219803071E-02     7.444280384E-02    -6.718628735E-03
       17    -3.297316514E-02     7.436233387E-02    -6.880372801E-03
       18    -3.032599208E-02     9.508187386E-02    -1.803633788E-02
       19    -3.204100630E-02     8.604042655E-02    -1.334653945E-02
       20    -2.964033241E-02     9.512413696E-02    -1.762854283E-02
! ... 22265 like lines cut
/wb,elem,start            !  set before creation of elements
/com,*********** Elements for Body 1 "00 Shin Modified\Solid1" ***********
et,1,187
eblock,19,solid,,10729
(19i9)
        1        1        1        1        0        0        0        0       10        0        1     1837     3823     3644     3334    16832    22080    16830    16828
    21623    21622
        1        1        1        1        0        0        0        0       10        0        2      734     3334     3644     3823     9710    21622     9712     9714
    21623    22080
        1        1        1        1        0        0        0        0       10        0        3     1837     3399     3823     3334    16829    21774    16832    16828
    21621    21623
        1        1        1        1        0        0        0        0       10        0        4      734     3334     3823     3399     9710    21623     9714     9711
    21621    21774
        1        1        1        1        0        0        0        0       10        0        5      475     3972      487     3664     7939     8029     7933     7937
    22113     8024
        1        1        1        1        0        0        0        0       10        0        6      475      486     3972     3664     7932     8020     7939     7937
     8015    22113
        1        1        1        1        0        0        0        0       10        0        7      508      520     3707     3809     8197     8294     8200     8201
     8295    22162
        1        1        1        1        0        0        0        0       10        0        8      508     3707      520     3057     8200     8294     8197     8199
    20743     8292
        1        1        1        1        0        0        0        0       10        0        9      508     3971      520     3809     8203     8296     8197     8201
    22255     8295
        1        1        1        1        0        0        0        0       10        0       10      508     3809     3056     3971     8201    20739     8198     8203
    22255    20742
! ... 21439 like lines cut
!Material Id = {64C180FF-5304-41B6-9B70-8A4E9B78DB69}
/wb,elem,end               !  done creating elements
/com,*********** Send User Defined Coordinate System(s) ***********
csys,0
toffst,273.15,  ! Temperature offset from absolute zero
/com,*********** Set Reference Temperature ***********
tref,22.
/wb,mat,start              !  starting to send materials
/com,*********** Send Materials ***********
MP,DENS,1,930,	! kg m^-3
MP,EX,1,1700000000,	! Pa
MP,NUXY,1,0.394,

/wb,mat,end                !  done sending materials
!************************* Model Summary ********************
!00 Shin Modified\Solid1,	PA2200,	matid,	1
!************************* End Model Summary ********************
! get the diagonal of the bounding box. Needed later for other things
*get,_xmin,node,,mnloc,x
*get,_ymin,node,,mnloc,y
*get,_zmin,node,,mnloc,z
*get,_xmax,node,,mxloc,x
*get,_ymax,node,,mxloc,y
*get,_zmax,node,,mxloc,z
_ASMDIAG=(_xmax-_xmin)*(_xmax-_xmin)+(_ymax-_ymin)*(_ymax-_ymin)+(_zmax-_zmin)*(_zmax-_zmin)
_ASMDIAG=SQRT(_ASMDIAG)
/wb,contact,start          !  starting to send contact
/wb,contact,end            !  done creating contacts
CMBLOCK,SELECTION,NODE,        1
(8i10)
      2984
/golist
/wb,load,start             !  starting to send loads
/com,*********** Fixed Supports ***********
CMBLOCK,_FIXEDSU,NODE,      208
(8i10)
        48        49        50        51        52        53        54        55
        56        57        58        59        60        61        62        63
       294       295       296       297       804       805       808       811
       818       820       822       824       829       830       831       832
       833       834       835       836      2100      2101      2102      2270
      2271      2272      2273      2274      2275      2276      2356      2435
      2439      2441      2442      2443      2444      2445      2446      2447
      2448      2449      2450      2451      2733      2734      2735      2736
      2737      2738      3247      4448      4449      4450      4451      4452
      4457      4458      4459      4460      4461      4466      4468      4469
      4474      4475      4476      4477      4482      4483      4484      4485
      4489      4491      4492      4493      4498      4499      4500      4503
      4504      4505      4507      4508      4509      4511      4513      4514
      4516      4517      4518      4519      4520      4523      4524      4525
      4531      4532      4533      4534      4538      4539      4540      4541
      4542      4546      4547      4548      4553      4554      4555      4556
      6506      6507      6508      6509      6511      6512      6513      6514
      6516      6517      6518      6519      6520      6522      6523      6524
      6525      6527      6528     10174     10176     10177     10186     10189
     10208     10209     10210     10211     10234     10235     10236     10267
! ... 6 like lines cut

cmsel,s,_FIXEDSU
d,all,all
nsel,all
/com,*********** Create Direct FE , Forces ****
CMBLOCK,_CM94F  ,NODE,        1
(8i10)
      2984

*DIM,_loadvari94x,TABLE,2,1,1,TIME,
! Time values
_loadvari94x(1,0,1) = 0.
_loadvari94x(2,0,1) = 1.
! Load values
_loadvari94x(1,1,1) = 0.
_loadvari94x(2,1,1) = 10.


*DIM,_loadvari94y,TABLE,2,1,1,TIME,
! Time values
_loadvari94y(1,0,1) = 0.
_loadvari94y(2,0,1) = 1.
! Load values
_loadvari94y(1,1,1) = 0.
_loadvari94y(2,1,1) = 0.


*DIM,_loadvari94z,TABLE,2,1,1,TIME,
! Time values
_loadvari94z(1,0,1) = 0.
_loadvari94z(2,0,1) = 1.
! Load values
_loadvari94z(1,1,1) = 0.
_loadvari94z(2,1,1) = -15.

/gst,on,on
fini
*get,_numnode,node,0,count
*get,_numelem,elem,0,count
*get, _MAXELEMNUM, elem, 0, NUM, MAX
*get, _MAXNODENUM, node, 0, NUM, MAX
*get, _MAXELEMTYPE, etyp, 0, NUM, MAX
*get, _MAXREALCONST, real, 0, NUM, MAX
/go
/wb,load,end               !  done creating loads
/com,--- Number of total nodes = %_numnode%
/com,--- Number of contact elements = 0
/com,--- Number of spring elements = 0
/com,--- Number of bearing elements = 0
/com,--- Number of solid elements = 10729
/com,--- Number of condensed parts = 0
/com,--- Number of total elements = %_numelem%
*get,_wallbsol,active,,time,wall
/com,****************************************************************************
/com,*************************    SOLUTION       ********************************
/com,****************************************************************************
/solu
antype,0                   ! static analysis
eqsl,sparse,,,,,1
cntr,print,1               ! print out contact info and also make no initial contact an error
dmpoption,emat,no             ! Don't combine emat file for DANSYS
dmpoption,esav,no             ! Don't combine esav file for DANSYS
nldiag,cont,iter           ! print out contact info each equilibrium iteration
rescontrol,,none                 ! Do not keep any restart files
/com,****************************************************
/com,******************* SOLVE FOR LS 1 OF 1 ****************
/com,**** Set Direct FE , Forces ****
f,_CM94F,fx,%_loadvari94x%
f,_CM94F,fy,%_loadvari94y%
f,_CM94F,fz,%_loadvari94z%
/nopr
/gopr
nsub,1,1,1
time,1.
outres,erase
outres,all,none
outres,nsol,all,
outres,rsol,all
outres,strs,all,
outres,epel,all,
outres,eppl,all,
stabilize,off                   ! Stabilization turned OFF by user
! *********** WB SOLVE COMMAND ***********
! check interactive state
*get,ANSINTER_,active,,int
*if,ANSINTER_,ne,0,then
/eof
*endif
solve
/com *************** Write FE CONNECTORS ********* 
CEWRITE,file,ce,,INTE
/com,****************************************************
/com,*************** FINISHED SOLVE FOR LS 1 *************
*get,_wallasol,active,,time,wall
/nopr
*get,_numnode,node,0,count
*get,_numelem,elem,0,count
*get, _MAXELEMNUM, elem, 0, NUM, MAX
*get, _MAXNODENUM, node, 0, NUM, MAX,,,INTERNAL
*get, _MAXELEMTYPE, etyp, 0, NUM, MAX
*get, _MAXREALCONST, real, 0, NUM, MAX
/gopr
/post1
xmlo,ENCODING,ISO-8859-1
xmlo,parm
/xml,parm,xml
fini
/gopr
*get,_walldone,active,,time,wall
_preptime=(_wallbsol-_wallstrt)*3600
_solvtime=(_wallasol-_wallbsol)*3600
_posttime=(_walldone-_wallasol)*3600
_totaltim=(_walldone-_wallstrt)*3600
/wb,file,end               ! done with WB generated input
